/*---------------------------------------------------------------------------*\
  =========                 |
  \\      /  F ield         | OpenFOAM: The Open Source CFD Toolbox
   \\    /   O peration     | Website:  https://openfoam.org
    \\  /    A nd           | Version:  8
     \\/     M anipulation  |
\*---------------------------------------------------------------------------*/
FoamFile
{
    version         2.0;
    format          ascii;
    class           dictionary;
    object          blockMeshDict;
}
// * * * * * * * * * * * * * * * * * * * * * * * * * * * * * * * * * * * * * //

    // Domain dimensions
    xMin   -2000;
    xMax   0;
    yMin   -10;
    yMax   10;
    zMin   0;

    zMax   300; // case 1
    // zMax   450; // case 2
    // zMax   600; // case 3
    // zMax   800; // case 4

    // Cell divisions in each direction
    xCells  1000; //1000
    yCells  2;   //10

    zCells  94; // case 1
    // zCells  141; // case 2
    // zCells  189; // case 3
    // zCells  252; // case 4

convertToMeters 1;

vertices
(
    ($xMin $yMin $zMin)
    ($xMax $yMin $zMin)
    ($xMax $yMax $zMin)
    ($xMin $yMax $zMin)

    ($xMin $yMin $zMax)
    ($xMax $yMin $zMax)
    ($xMax $yMax $zMax)
    ($xMin $yMax $zMax)
);

blocks
(
    hex (0 1 2 3 4 5 6 7)
    (
        $xCells
        $yCells
        $zCells
    )

    simpleGrading (1 1 20)
);

edges
(
);

boundary
(
    outlet
    {
        type patch;
        faces
        (
            (1 5 6 2)
        );
    }
    sides_1
    {
        type patch;
        faces
        (
            (0 4 5 1)
        );
    }
    sides_2
    {
        type patch;
        faces
        (
            (3 2 6 7)
        );
    }

    inlet
    {
        type patch;
        faces
        (
            (0 3 7 4)
        );
    }

    ground
    {
        type wall;
        faces
        (
            (0 1 2 3)
        );
    }

    top
    {
        type wall;
        faces
        (
            (4 7 6 5)

        );
    }
);

mergePatchPairs
(
);


// ************************************************************************* //
